44
	Energy:     172.0255165
C         -2.77819       -0.28255        1.02601
C          4.52320        0.05412       -0.64246
C         -2.76162        0.80318        0.17179
C         -1.56470        1.22396       -0.39429
H         -3.68018        1.33519       -0.04184
C         -1.59791       -0.95392        1.31956
C         -0.33882        0.55455       -0.13680
H         -1.63590        2.09742       -1.01374
C         -0.35535       -0.56818        0.74685
H         -1.69598       -1.76164        2.02180
C          0.88881        1.01538       -0.69712
C          0.85620       -1.24370        1.08069
C          2.10036        0.33982       -0.36331
C          2.08382       -0.78289        0.52037
C          3.34292        0.72551       -0.93603
C          3.30968       -1.45231        0.77791
H          3.44101        1.53320       -1.63830
C          4.50661       -1.03157        0.21182
H          3.38084       -2.32575        1.39741
H          5.42517       -1.56359        0.42547
C          0.91049        2.19549       -1.62949
S         -0.05890        2.40282       -3.00229
C          0.57897        3.88865       -3.45684
C          1.56187        4.25216       -2.54917
C          1.74930        3.30927       -1.53220
H          2.12802        5.17192       -2.61704
H          2.47431        3.44631       -0.74023
C          0.83455       -2.42368        2.01319
S          1.80368       -2.63066        3.38611
C          1.16671       -4.11576        3.84143
C          0.18336       -4.48015        2.93338
C         -0.00406       -3.53754        1.91612
H         -0.72897       -3.67484        1.12411
H         -0.38351       -5.39954        3.00011
C          0.15549        4.68647       -4.64399
H         -0.65025        4.15884       -5.19603
H          1.02158        4.83313       -5.32246
H         -0.22253        5.67590       -4.31223
C          1.60008       -4.90280        5.03257
H          1.02212       -5.84792        5.10932
H          1.43515       -4.30391        5.95217
H          2.67902       -5.14649        4.94281
H         -3.70972       -0.59807        1.47893
H          5.45473        0.36961       -1.09540
