12
	Energy:      10.5736998
C         -0.77801        0.12776       -0.00000
C          2.01898        0.04953       -0.00000
C         -0.04489        1.31933       -0.00000
C         -0.11264       -1.10293       -0.00000
C          1.35361        1.28022       -0.00000
H         -0.55964        2.27143       -0.00000
H          1.92077        2.20205       -0.00000
C          1.28586       -1.14205       -0.00000
H         -0.67980       -2.02477       -0.00000
H          1.80061       -2.09415       -0.00000
H          3.10089        0.01927       -0.00000
H         -1.85993        0.15802       -0.00000
