20
	Energy:     104.4437413
C         -0.57939        2.27085        0.00000
C          1.74680       -0.29433        0.00000
C          1.64042        2.32444        0.00000
C          1.28192        1.00354        0.00000
C         -0.11557        0.97204        0.00000
C         -0.47297       -0.34979        0.00000
N          0.50613        3.09937        0.00000
N          0.66238       -1.12388        0.00000
O          2.77858        2.75895        0.00000
O         -1.61064       -0.78535        0.00000
C          0.47462        4.55817       -0.00000
H         -0.57165        4.93151       -0.00000
H          0.99270        4.94069       -0.90452
H          0.99270        4.94069        0.90452
C          0.69732       -2.58285       -0.00000
H          1.74466       -2.95351       -0.00000
H          0.18082       -2.96722       -0.90458
H          0.18082       -2.96722        0.90458
H          2.78136       -0.61359        0.00000
H         -1.61350        2.59187        0.00000
