24
	Energy:      92.0587127
C         -0.59421        0.44279       -0.00000
C          7.96942       -0.70484        0.00000
C         -0.11019       -0.86230        0.00000
S          0.71042        1.51639       -0.00000
C          1.28768       -0.92229       -0.00000
H         -0.75162       -1.73415       -0.00000
C          1.90002        0.32390        0.00000
C          3.29447        0.46340        0.00000
C          2.05281       -2.09024        0.00000
C          4.08078       -0.72528       -0.00000
C          3.45224       -1.99088        0.00000
H          1.57683       -3.06289       -0.00000
H          4.03817       -2.90116       -0.00000
C          3.92303        1.72899       -0.00000
C          5.47522       -0.58582        0.00000
C          6.08759        0.66034        0.00000
C          5.32248        1.82832       -0.00000
H          3.33712        2.63928       -0.00000
H          5.79849        2.80095        0.00000
C          7.48547        0.60027       -0.00000
S          6.66474       -1.77837       -0.00000
H          8.12696        1.47208        0.00000
H          9.01412       -0.98453       -0.00000
H         -1.63893        0.72240        0.00000
