9
	Energy:      32.1723649
C         -0.72225        0.39923        0.00000
C          1.77989        0.53424       -0.00000
C         -0.10137       -0.84155        0.00000
C          1.29612       -0.76614       -0.00000
H         -0.64525       -1.77673        0.00000
H          1.93748       -1.63736       -0.00000
S          0.46840        1.58651       -0.00000
H          2.82313        0.81957       -0.00000
H         -1.79014        0.57064        0.00000
