19
	Energy:       4.4960347
C         -4.00683        0.51389        0.00705
C         -2.80350       -0.42389        0.03970
H         -4.94358       -0.08092        0.04799
H         -4.00556        1.11128       -0.92956
H         -3.98403        1.20188        0.87897
C         -1.48797        0.36143       -0.01530
H         -2.86331       -1.11434       -0.82982
H         -2.84182       -1.02393        0.97504
C         -0.27946       -0.58600        0.01775
H         -1.43705        1.05142        0.85607
H         -1.45859        0.96086       -0.95220
C          1.04283        0.14031       -0.03438
H         -0.33458       -1.27679       -0.85150
H         -0.31308       -1.18644        0.95271
C          2.31654       -0.64806       -0.01010
H          2.36907       -1.24363        0.92518
H          3.19830        0.02645       -0.05438
H          2.34752       -1.33412       -0.88221
O          1.09119        1.36066       -0.09605
