17
	Energy:      17.9640507
C         -1.21156        0.75639       -0.00000
C         -1.22337       -0.64224       -0.00000
C         -0.02305       -1.35252       -0.00000
H         -2.16460       -1.17688       -0.00000
C          0.00754        1.47038       -0.00000
H         -2.16155        1.27691       -0.00000
C          1.21055        0.73009       -0.00000
C          1.19015       -0.66650       -0.00000
H         -0.03129       -2.43476       -0.00000
H          2.17881        1.19916       -0.00000
H          2.12194       -1.21683       -0.00000
C         -0.01517        2.96897        0.00000
O         -1.09479        3.54362        0.00000
C          1.21721        3.83827        0.00000
H          2.17144        3.28658        0.00000
H          1.20957        4.48350        0.90266
H          1.20957        4.48350       -0.90266
