10
	Energy:       0.8540704
C         -1.67029       -0.59811        0.14427
C          0.91345       -0.77412       -0.02347
C         -0.32621        0.05994        0.08179
H         -1.71990       -1.26191        1.03261
H         -1.83304       -1.20222       -0.77269
H         -2.47702        0.16203        0.21996
H          0.98689       -1.44629        0.85688
H          1.81841       -0.13057       -0.05892
H          0.87375       -1.38661       -0.94841
O         -0.24096        1.27812        0.11672
