18
	Energy:       7.1245417
C         -1.95158        0.70202       -0.22483
C         -2.03471       -0.74636        0.27879
C         -0.62604        1.34331        0.21109
H         -2.80308        1.28917        0.18101
H         -2.01997        0.71214       -1.33516
C          0.56157        0.52560       -0.31735
H         -0.58231        1.38376        1.32198
H         -0.56736        2.38278       -0.17692
C          0.47845       -0.92277        0.18626
H          1.51406        0.98612        0.02207
H          0.54928        0.53179       -1.42975
C         -0.84709       -1.56407       -0.24965
H         -2.98719       -1.20688       -0.06063
H         -2.02241       -0.75255        1.39119
H          0.54684       -0.93290        1.29660
H          1.32995       -1.50993       -0.21957
H         -0.89083       -1.60451       -1.36054
H         -0.90577       -2.60354        0.13836
