12
	Energy:       5.4162183
C         -0.92734        0.00084       -0.00807
N          0.38524       -0.36721       -0.00078
C          1.43517        0.63696       -0.00095
H          1.34574        1.27792        0.90205
H          1.35346        1.26954       -0.91057
H          2.44215        0.16605        0.00552
C          0.75048       -1.77216        0.00727
H         -0.14186       -2.43529        0.00654
H          1.34847       -1.99758        0.91565
H          1.35617       -2.00595       -0.89386
O         -1.25080        1.17955       -0.01489
H         -1.71137       -0.75074       -0.00793
