10
	Energy:      24.2572816
S         -0.19737        0.23082        0.76635
C         -1.68356       -0.62345        0.13915
H         -2.58119       -0.02178        0.39105
H         -1.77533       -1.61255        0.63395
H         -1.64337       -0.76881       -0.96168
C          0.98121       -0.91740       -0.02387
H          2.01172       -0.52839        0.10998
H          0.77807       -1.03600       -1.10981
H          0.91496       -1.90928        0.46942
O         -0.16104        1.21508       -0.41454
